<?xml version="1.0" ?>
<routes xmlns:xsi="http://www.w3.org/2001/XMLSchema-instance" xsi:noNamespaceSchemaLocation="http://sumo.dlr.de/xsd/routes_file.xsd">
	<trip id="t_0" depart="0.0" from="E0" to="E0" departLane="random"/>
	<trip id="t_1" depart="0.25" from="E0" to="E0" departLane="random"/>
	<trip id="t_2" depart="0.5" from="E0" to="E0" departLane="random"/>
	<trip id="t_3" depart="0.75" from="E0" to="E0" departLane="random"/>
	<trip id="t_4" depart="1.0" from="E0" to="E0" departLane="random"/>
	<trip id="t_5" depart="1.25" from="E0" to="E0" departLane="random"/>
	<trip id="t_6" depart="1.5" from="E0" to="E0" departLane="random"/>
	<trip id="t_7" depart="1.75" from="E0" to="E0" departLane="random"/>
	<trip id="t_8" depart="2.0" from="E0" to="E0" departLane="random"/>
	<trip id="t_9" depart="2.25" from="E0" to="E0" departLane="random"/>
	<trip id="r_0" depart="0.0" from="E1" to="E1" departLane="random"/>
	<trip id="r_1" depart="0.25" from="E1" to="E1" departLane="random"/>
	<trip id="r_2" depart="0.5" from="E1" to="E1" departLane="random"/>
	<trip id="r_3" depart="0.75" from="E1" to="E1" departLane="random"/>
	<trip id="r_4" depart="1.0" from="E1" to="E1" departLane="random"/>
	<trip id="r_5" depart="1.25" from="E1" to="E1" departLane="random"/>
	<trip id="r_6" depart="1.5" from="E1" to="E1" departLane="random"/>
	<trip id="r_7" depart="1.75" from="E1" to="E1" departLane="random"/>
	<trip id="r_8" depart="2.0" from="E1" to="E1" departLane="random"/>
	<trip id="r_9" depart="2.25" from="E1" to="E1" departLane="random"/>
	<trip id="r_10" depart="2.5" from="E1" to="E1" departLane="random"/>
	<trip id="r_11" depart="2.75" from="E1" to="E1" departLane="random"/>
	<trip id="r_12" depart="3.0" from="E1" to="E1" departLane="random"/>
	<trip id="r_13" depart="3.25" from="E1" to="E1" departLane="random"/>
	<trip id="r_14" depart="3.5" from="E1" to="E1" departLane="random"/>
	<trip id="r_15" depart="3.75" from="E1" to="E1" departLane="random"/>
	<trip id="r_16" depart="4.0" from="E1" to="E1" departLane="random"/>
	<trip id="r_17" depart="4.25" from="E1" to="E1" departLane="random"/>
	<trip id="r_18" depart="4.5" from="E1" to="E1" departLane="random"/>
	<trip id="r_19" depart="4.75" from="E1" to="E1" departLane="random"/>
	<trip id="r_20" depart="5.0" from="E1" to="E1" departLane="random"/>
	<trip id="r_21" depart="5.25" from="E1" to="E1" departLane="random"/>
	<trip id="r_22" depart="5.5" from="E1" to="E1" departLane="random"/>
	<trip id="r_23" depart="5.75" from="E1" to="E1" departLane="random"/>
	<trip id="r_24" depart="6.0" from="E1" to="E1" departLane="random"/>
</routes>
