<?xml version="1.0" encoding="UTF-8"?>

<!-- generated on 2025-01-07 21:21:46 by Eclipse SUMO netedit Version 1.18.0
-->

<routes xmlns:xsi="http://www.w3.org/2001/XMLSchema-instance" xsi:noNamespaceSchemaLocation="http://sumo.dlr.de/xsd/routes_file.xsd">
    <!-- Vehicles, persons and containers (sorted by depart) -->
    <trip id="t_0" depart="0.00" departLane="random" from="E0" to="E0"/>
    <trip id="t_1" depart="0.00" departLane="random" from="E0" to="E0"/>
</routes>
