<?xml version="1.0" encoding="UTF-8"?>

<!-- generated on 2025-01-07 21:37:35 by Eclipse SUMO netedit Version 1.18.0
-->

<routes xmlns:xsi="http://www.w3.org/2001/XMLSchema-instance" xsi:noNamespaceSchemaLocation="http://sumo.dlr.de/xsd/routes_file.xsd">
    <!-- Vehicles, persons and containers (sorted by depart) -->
    <trip id="t_0" depart="0.00" departLane="random" from="E0" to="E0"/>
    <trip id="t_1" depart="0.50" departLane="random" from="E0" to="E0"/>
    <trip id="t_2" depart="1.00" departLane="random" from="E0" to="E0"/>
    <trip id="t_3" depart="1.50" departLane="random" from="E0" to="E0"/>
    <trip id="t_4" depart="2.00" departLane="random" from="E0" to="E0"/>
    <trip id="t_5" depart="2.50" departLane="random" from="E0" to="E0"/>
    <trip id="t_6" depart="3.00" departLane="random" from="E0" to="E0"/>
</routes>
