<?xml version="1.0" encoding="UTF-8"?>

<!-- generated on 2025-01-05 20:59:36 by Eclipse SUMO netedit Version 1.18.0
<configuration xmlns:xsi="http://www.w3.org/2001/XMLSchema-instance" xsi:noNamespaceSchemaLocation="http://sumo.dlr.de/xsd/neteditConfiguration.xsd">

    <input>
        <sumocfg-file value="/home/mikmik/flowExt/SUMO_sim_maker/Simple_road_sim/simple.sumocfg"/>
        <additional-files value=""/>
        <route-files value="/home/mikmik/flowExt/SUMO_sim_maker/Simple_road_sim/simple_rou.xml"/>
        <sumo-net-file value="/home/mikmik/flowExt/SUMO_sim_maker/Simple_road_sim/simple_net.net.xml"/>
    </input>

    <output>
        <output-file value="/home/mikmik/flowExt/SUMO_sim_maker/Simple_road_sim/simple_net.net.xml"/>
    </output>

    <processing>
        <geometry.min-radius.fix.railways value="false"/>
        <geometry.max-grade.fix value="false"/>
        <offset.disable-normalization value="true"/>
        <lefthand value="0"/>
    </processing>

    <junctions>
        <no-internal-links value="true"/>
        <no-turnarounds value="true"/>
        <junctions.corner-detail value="5"/>
        <junctions.limit-turn-speed value="5.50"/>
        <rectangular-lane-cut value="0"/>
    </junctions>

    <pedestrian>
        <walkingareas value="0"/>
    </pedestrian>

</configuration>
-->

<net version="1.16" junctionCornerDetail="5" limitTurnSpeed="5.50" xmlns:xsi="http://www.w3.org/2001/XMLSchema-instance" xsi:noNamespaceSchemaLocation="http://sumo.dlr.de/xsd/net_file.xsd">

    <location netOffset="0.00,0.00" convBoundary="0.00,0.00,150.00,0.00" origBoundary="-10000000000.00,-10000000000.00,10000000000.00,10000000000.00" projParameter="!"/>

    <edge id="E0" from="J0" to="J1" priority="-1">
        <lane id="E0_0" index="0" speed="13.89" length="150.00" shape="0.00,-4.80 150.00,-4.80"/>
        <lane id="E0_1" index="1" speed="13.89" length="150.00" shape="0.00,-1.60 150.00,-1.60"/>
    </edge>

    <junction id="J0" type="dead_end" x="0.00" y="0.00" incLanes="" intLanes="" shape="0.00,0.00 0.00,-6.40"/>
    <junction id="J1" type="dead_end" x="150.00" y="0.00" incLanes="E0_0 E0_1" intLanes="" shape="150.00,-6.40 150.00,0.00"/>

</net>
