<?xml version="1.0" ?>
<net version="1.16" junctionCornerDetail="5" limitTurnSpeed="5.50">
  <location netOffset="0.00,0.00" convBoundary="0.0,0.0,250.0,0.0" origBoundary="10000000000.00,10000000000.00,-10000000000.00,-10000000000.00" projParameter="!"/>
  <edge id="E0" priority="-1" from="J0" to="J1">
    <lane id="E0_0" index="0" speed="13.89" length="250" shape="0.0,0.0 250.0,0.0"/>
  </edge>
  <junction id="J0" type="dead_end" x="0.0" y="0.0" incLanes="" intLanes="" shape="0.0,0.0 0.0,-3.0"/>
  <junction id="J1" type="dead_end" x="250.0" y="0.0" incLanes="E0_0" intLanes="" shape="250.0,-3.0 250.0,0.0"/>
</net>
